digr [shabe=bos]
 1C [”hape=ir|"o
oowh"""ÿÿÿ€""ne]

}
